[TITLE]
"Sol Poniente" irrigation district network. 
Balerma Irrigation Network. El Ejido. Province of Almeria (Spain)
Reca, J., and J. Martinez. 2006. "Genetic algorithms for the design of
looped irrigation water distribution networks." Water Resour. Res.
42 (5) 1-9. https://doi.org/10.1029/2005WR004383.
Download from
https://www.exeter.ac.uk/research/centres/cws/resources/benchmarks/pareto/
This file is set in LPS and with the HW pipe roughness as in:
Ezio Todini; Simone Santopietro; Rudy Gargano; and Lewis A. Rossman (2021)
Pressure Flow Based Algorithms for Pressure-Driven Analysis of Water Distribution Networks
10.1061/(ASCE)WR.1943-5452.0001401

[JUNCTIONS]
;ID              	Elev        	Demand      	Pattern         
 179001          	60          	5.55        	                	;
 179             	60          	5.55        	                	;
 177             	58.9        	5.55        	                	;
 174             	60          	5.55        	                	;
 173             	59.3        	5.55        	                	;
 171001          	60          	5.55        	                	;
 171             	60          	5.55        	                	;
 172             	60          	5.55        	                	;
 170             	60          	5.55        	                	;
 165             	56.7        	5.55        	                	;
 166             	57.3        	5.55        	                	;
 168             	57.1        	5.55        	                	;
 169             	56.5        	5.55        	                	;
 163             	55.2        	5.55        	                	;
 164             	57.8        	5.55        	                	;
 162             	55.2        	5.55        	                	;
 161             	55          	5.55        	                	;
 106             	54          	5.55        	                	;
 124             	52.2        	5.55        	                	;
 125             	51.1        	5.55        	                	;
 125001          	49.4        	5.55        	                	;
 126             	49.3        	5.55        	                	;
 127             	56.5        	5.55        	                	;
 128             	55          	5.55        	                	;
 129             	52.3        	5.55        	                	;
 130             	50.2        	5.55        	                	;
 132             	55          	5.55        	                	;
 131001          	57          	5.55        	                	;
 131             	52.4        	5.55        	                	;
 133             	46.6        	5.55        	                	;
 134             	28.8        	5.55        	                	;
 135             	60          	5.55        	                	;
 136             	43.3        	5.55        	                	;
 137             	25          	5.55        	                	;
 138             	23.6        	5.55        	                	;
 139             	42.5        	5.55        	                	;
 141             	50          	5.55        	                	;
 143             	38.3        	5.55        	                	;
 144             	36.8        	5.55        	                	;
 145             	27          	5.55        	                	;
 142             	24          	5.55        	                	;
 140001          	55.5        	5.55        	                	;
 151             	56.5        	5.55        	                	;
 152             	55          	5.55        	                	;
 107             	50          	5.55        	                	;
 108             	46.2        	5.55        	                	;
 109             	48.6        	5.55        	                	;
 110             	47.6        	5.55        	                	;
 111             	47.1        	5.55        	                	;
 113             	47.9        	5.55        	                	;
 114             	46          	5.55        	                	;
 112             	45.6        	5.55        	                	;
 115             	50          	5.55        	                	;
 116             	50          	5.55        	                	;
 117             	47.5        	5.55        	                	;
 118             	45          	5.55        	                	;
 119             	46          	5.55        	                	;
 105             	55.8        	5.55        	                	;
 102             	54.5        	5.55        	                	;
 103             	51.5        	5.55        	                	;
 104             	52.4        	5.55        	                	;
 100             	53.1        	5.55        	                	;
 101             	51.2        	5.55        	                	;
 96              	52.8        	5.55        	                	;
 97              	51.4        	5.55        	                	;
 98              	46          	5.55        	                	;
 99              	45          	5.55        	                	;
 93              	50          	5.55        	                	;
 94              	51.7        	5.55        	                	;
 95              	51.4        	5.55        	                	;
 92              	40          	5.55        	                	;
 160             	32.9        	5.55        	                	;
 159001          	34          	5.55        	                	;
 159             	31.4        	5.55        	                	;
 156             	34.2        	5.55        	                	;
 157             	40          	5.55        	                	;
 158             	46          	5.55        	                	;
 155             	34          	5.55        	                	;
 154             	41.6        	5.55        	                	;
 153             	34          	5.55        	                	;
 55              	30          	5.55        	                	;
 59              	21          	5.55        	                	;
 60              	11          	5.55        	                	;
 61              	5           	5.55        	                	;
 62              	3.5         	5.55        	                	;
 147             	33          	5.55        	                	;
 150             	45          	5.55        	                	;
 148             	29          	5.55        	                	;
 149             	19          	5.55        	                	;
 63              	9           	5.55        	                	;
 64              	4.5         	5.55        	                	;
 65              	3.3         	5.55        	                	;
 66              	1.2         	5.55        	                	;
 67              	12.3        	5.55        	                	;
 68              	9.3         	5.55        	                	;
 69              	8.16        	5.55        	                	;
 70              	8.8         	5.55        	                	;
 71              	8.1         	5.55        	                	;
 72              	7.4         	5.55        	                	;
 56              	12.9        	5.55        	                	;
 57              	4.8         	5.55        	                	;
 58              	3           	5.55        	                	;
 53              	14.5        	5.55        	                	;
 54              	4.1         	5.55        	                	;
 52              	31          	5.55        	                	;
 46001           	33          	5.55        	                	;
 50              	20          	5.55        	                	;
 51              	4.4         	5.55        	                	;
 47              	13.1        	5.55        	                	;
 48              	7.1         	5.55        	                	;
 49              	1.6         	5.55        	                	;
 42              	15          	5.55        	                	;
 45              	5.9         	5.55        	                	;
 46              	3.5         	5.55        	                	;
 41              	31          	5.55        	                	;
 35              	30          	5.55        	                	;
 36              	13          	5.55        	                	;
 39              	10          	5.55        	                	;
 40              	6.3         	5.55        	                	;
 37              	6           	5.55        	                	;
 91              	42.5        	5.55        	                	;
 90              	45          	5.55        	                	;
 89              	47          	5.55        	                	;
 31              	20          	5.55        	                	;
 32              	7.1         	5.55        	                	;
 34              	4.4         	5.55        	                	;
 33              	4.6         	5.55        	                	;
 28001           	32.2        	5.55        	                	;
 28              	22.5        	5.55        	                	;
 29              	9.2         	5.55        	                	;
 30              	5.65        	5.55        	                	;
 27              	31.2        	5.55        	                	;
 26              	12.3        	5.55        	                	;
 23              	7.5         	5.55        	                	;
 22              	5.2         	5.55        	                	;
 87              	40.3        	5.55        	                	;
 86              	41.4        	5.55        	                	;
 83              	40.2        	5.55        	                	;
 77              	45          	5.55        	                	;
 81              	44.4        	5.55        	                	;
 78              	44.8        	5.55        	                	;
 79              	45.8        	5.55        	                	;
 80              	46.6        	5.55        	                	;
 82              	46.9        	5.55        	                	;
 84              	40          	5.55        	                	;
 85              	50          	5.55        	                	;
 121             	50          	5.55        	                	;
 122             	49.3        	5.55        	                	;
 123             	47.3        	5.55        	                	;
 120             	49.5        	5.55        	                	;
 75              	47          	5.55        	                	;
 76              	47.4        	5.55        	                	;
 73              	32.5        	5.55        	                	;
 74              	40          	5.55        	                	;
 227             	52.8        	5.55        	                	;
 215001          	75          	5.55        	                	;
 215             	60          	5.55        	                	;
 219             	50          	5.55        	                	;
 220             	52.3        	5.55        	                	;
 221             	51.7        	5.55        	                	;
 222             	52          	5.55        	                	;
 223             	50.8        	5.55        	                	;
 223001          	54.5        	5.55        	                	;
 224             	50.1        	5.55        	                	;
 225             	49.5        	5.55        	                	;
 226             	50.7        	5.55        	                	;
 214             	74          	5.55        	                	;
 216             	62.7        	5.55        	                	;
 217             	62          	5.55        	                	;
 218             	57.25       	5.55        	                	;
 201             	95          	5.55        	                	;
 203             	94.2        	5.55        	                	;
 204             	92.9        	5.55        	                	;
 205             	91.4        	5.55        	                	;
 211             	90.8        	5.55        	                	;
 212             	65          	5.55        	                	;
 206             	84.2        	5.55        	                	;
 207             	80.6        	5.55        	                	;
 208             	76.8        	5.55        	                	;
 209             	70          	5.55        	                	;
 210             	70          	5.55        	                	;
 213             	73.8        	5.55        	                	;
 200001          	95          	5.55        	                	;
 199             	94          	5.55        	                	;
 196             	92.7        	5.55        	                	;
 197             	90          	5.55        	                	;
 198             	89.6        	5.55        	                	;
 233             	87.17       	5.55        	                	;
 232             	84.2        	5.55        	                	;
 231             	80.5        	5.55        	                	;
 230             	72.5        	5.55        	                	;
 234             	65          	5.55        	                	;
 194             	95          	5.55        	                	;
 195             	95          	5.55        	                	;
 192             	95          	5.55        	                	;
 193             	85          	5.55        	                	;
 234001          	65          	5.55        	                	;
 235             	71.5        	5.55        	                	;
 236             	76          	5.55        	                	;
 237             	83          	5.55        	                	;
 238             	81.3        	5.55        	                	;
 240             	83          	5.55        	                	;
 239             	86.3        	5.55        	                	;
 190001          	95          	5.55        	                	;
 187             	95          	5.55        	                	;
 188             	94.2        	5.55        	                	;
 189             	90.5        	5.55        	                	;
 186             	95          	5.55        	                	;
 185             	95          	5.55        	                	;
 235001          	75.5        	5.55        	                	;
 241             	83.3        	5.55        	                	;
 242             	87.8        	5.55        	                	;
 243             	83.6        	5.55        	                	;
 244             	78.1        	5.55        	                	;
 245             	83.5        	5.55        	                	;
 183             	87.7        	5.55        	                	;
 184             	85.7        	5.55        	                	;
 182             	95          	5.55        	                	;
 249             	94.1        	5.55        	                	;
 248             	95          	5.55        	                	;
 247             	90.8        	5.55        	                	;
 246             	85          	5.55        	                	;
 181             	93          	5.55        	                	;
 266             	71.4        	5.55        	                	;
 180004          	84.2        	5.55        	                	;
 190             	95          	5.55        	                	;
 191             	91.8        	5.55        	                	;
 180003          	90          	5.55        	                	;
 180002          	95          	5.55        	                	;
 180001          	95.6        	5.55        	                	;
 180             	95          	5.55        	                	;
 287             	73.3        	5.55        	                	;
 286             	72          	5.55        	                	;
 285             	71          	5.55        	                	;
 284             	70          	5.55        	                	;
 200             	77.8        	5.55        	                	;
 274             	65.5        	5.55        	                	;
 275             	66          	5.55        	                	;
 276             	71          	5.55        	                	;
 265             	70          	5.55        	                	;
 268             	65          	5.55        	                	;
 269             	66          	5.55        	                	;
 271             	72.4        	5.55        	                	;
 270             	73.7        	5.55        	                	;
 318             	35          	5.55        	                	;
 317             	40          	5.55        	                	;
 316             	46          	5.55        	                	;
 315             	45          	5.55        	                	;
 313             	45          	5.55        	                	;
 314             	40          	5.55        	                	;
 312             	45.6        	5.55        	                	;
 310             	45.7        	5.55        	                	;
 311             	48.4        	5.55        	                	;
 309             	50          	5.55        	                	;
 297             	52          	5.55        	                	;
 298             	55          	5.55        	                	;
 299             	60          	5.55        	                	;
 296             	51.7        	5.55        	                	;
 294             	48.5        	5.55        	                	;
 293             	47.6        	5.55        	                	;
 291             	49          	5.55        	                	;
 295             	51.4        	5.55        	                	;
 288             	55          	5.55        	                	;
 289             	71          	5.55        	                	;
 290             	68          	5.55        	                	;
 282             	66.8        	5.55        	                	;
 277             	60          	5.55        	                	;
 278             	67.2        	5.55        	                	;
 279             	71.4        	5.55        	                	;
 280             	73.6        	5.55        	                	;
 281             	75          	5.55        	                	;
 272             	73.4        	5.55        	                	;
 273             	70          	5.55        	                	;
 264             	70.5        	5.55        	                	;
 257001          	71          	5.55        	                	;
 258001          	74.4        	5.55        	                	;
 259001          	71.6        	5.55        	                	;
 260001          	75.3        	5.55        	                	;
 261             	76.4        	5.55        	                	;
 262             	76          	5.55        	                	;
 263             	75.8        	5.55        	                	;
 255             	82.6        	5.55        	                	;
 258             	83.5        	5.55        	                	;
 259             	83.3        	5.55        	                	;
 260             	81.5        	5.55        	                	;
 256             	84          	5.55        	                	;
 257             	87          	5.55        	                	;
 254             	83.9        	5.55        	                	;
 250004          	85          	5.55        	                	;
 421             	98.1        	5.55        	                	;
 420             	99.8        	5.55        	                	;
 419             	101.1       	5.55        	                	;
 418             	103         	5.55        	                	;
 416             	103         	5.55        	                	;
 417             	104         	5.55        	                	;
 415             	103         	5.55        	                	;
 414             	102         	5.55        	                	;
 413             	100         	5.55        	                	;
 250001          	100         	5.55        	                	;
 21              	4.8         	5.55        	                	;
 319             	46.9        	5.55        	                	;
 320             	47.5        	5.55        	                	;
 20              	11          	5.55        	                	;
 19              	3.2         	5.55        	                	;
 18              	8           	5.55        	                	;
 302             	50          	5.55        	                	;
 303             	50          	5.55        	                	;
 305             	51          	5.55        	                	;
 306             	54.8        	5.55        	                	;
 307             	54.8        	5.55        	                	;
 321             	50          	5.55        	                	;
 11              	4           	5.55        	                	;
 322             	47.4        	5.55        	                	;
 323             	44          	5.55        	                	;
 301             	75.2        	5.55        	                	;
 300             	75          	5.55        	                	;
 324             	53.4        	5.55        	                	;
 368             	58          	5.55        	                	;
 367             	59.8        	5.55        	                	;
 369             	59.2        	5.55        	                	;
 325             	75          	5.55        	                	;
 365             	79.7        	5.55        	                	;
 362             	80          	5.55        	                	;
 360001          	80.5        	5.55        	                	;
 360             	80.6        	5.55        	                	;
 359             	80.7        	5.55        	                	;
 361             	79.5        	5.55        	                	;
 366             	79.4        	5.55        	                	;
 364             	80          	5.55        	                	;
 363             	80.5        	5.55        	                	;
 326             	75.7        	5.55        	                	;
 327             	76.5        	5.55        	                	;
 328             	77          	5.55        	                	;
 329             	77.7        	5.55        	                	;
 330             	75.3        	5.55        	                	;
 334             	80.2        	5.55        	                	;
 336             	80          	5.55        	                	;
 331             	75.7        	5.55        	                	;
 332             	75          	5.55        	                	;
 333             	80          	5.55        	                	;
 337             	84.36       	5.55        	                	;
 338             	81.1        	5.55        	                	;
 340             	83.54       	5.55        	                	;
 341             	83.6        	5.55        	                	;
 250             	83          	5.55        	                	;
 251             	82.5        	5.55        	                	;
 253             	78.8        	5.55        	                	;
 252             	78.8        	5.55        	                	;
 342             	82.8        	5.55        	                	;
 343             	82.2        	5.55        	                	;
 344             	80.2        	5.55        	                	;
 339             	81.6        	5.55        	                	;
 250003          	86          	5.55        	                	;
 250002          	88.6        	5.55        	                	;
 412             	90          	5.55        	                	;
 411             	89.7        	5.55        	                	;
 410             	89.7        	5.55        	                	;
 409             	87          	5.55        	                	;
 408             	86.7        	5.55        	                	;
 407001          	85          	5.55        	                	;
 407             	84.5        	5.55        	                	;
 345             	84.4        	5.55        	                	;
 346             	84.1        	5.55        	                	;
 347             	83.1        	5.55        	                	;
 348             	82.9        	5.55        	                	;
 349             	82.76       	5.55        	                	;
 350             	84.2        	5.55        	                	;
 350001          	83.7        	5.55        	                	;
 351             	83.6        	5.55        	                	;
 356             	82.3        	5.55        	                	;
 352             	82.1        	5.55        	                	;
 335             	80.4        	5.55        	                	;
 406             	84.4        	5.55        	                	;
 405             	84.3        	5.55        	                	;
 404             	83.74       	5.55        	                	;
 353             	81.8        	5.55        	                	;
 354             	81.5        	5.55        	                	;
 355             	81.1        	5.55        	                	;
 357             	82.1        	5.55        	                	;
 358             	82          	5.55        	                	;
 370             	59.5        	5.55        	                	;
 371             	59.2        	5.55        	                	;
 372             	57.2        	5.55        	                	;
 373             	68          	5.55        	                	;
 374             	69.5        	5.55        	                	;
 378             	56.6        	5.55        	                	;
 379             	53          	5.55        	                	;
 380             	50.5        	5.55        	                	;
 381             	45          	5.55        	                	;
 382             	45          	5.55        	                	;
 376             	56.2        	5.55        	                	;
 377             	52.7        	5.55        	                	;
 383             	52.7        	5.55        	                	;
 384             	56          	5.55        	                	;
 396001          	80.4        	5.55        	                	;
 397             	80.5        	5.55        	                	;
 398             	80.5        	5.55        	                	;
 400             	81.7        	5.55        	                	;
 401             	81.7        	5.55        	                	;
 402             	80.8        	5.55        	                	;
 403             	80.9        	5.55        	                	;
 10              	3.3         	5.55        	                	;
 9               	1.7         	5.55        	                	;
 8               	8.5         	5.55        	                	;
 2               	16.5        	5.55        	                	;
 1               	13.2        	5.55        	                	;
 3               	23.9        	5.55        	                	;
 385             	54.7        	5.55        	                	;
 17              	10          	5.55        	                	;
 16              	8.1         	5.55        	                	;
 15              	6.7         	5.55        	                	;
 13              	12.4        	5.55        	                	;
 12              	15          	5.55        	                	;
 14              	19.25       	5.55        	                	;
 6               	18.4        	5.55        	                	;
 5               	12.5        	5.55        	                	;
 601             	56          	0           	                	;
 387             	54.8        	5.55        	                	;
 388             	54.8        	5.55        	                	;
 389             	55.5        	5.55        	                	;
 390             	52.5        	5.55        	                	;
 391             	53          	5.55        	                	;
 392             	52          	5.55        	                	;
 393             	50          	5.55        	                	;
 394             	56.4        	5.55        	                	;
 395             	55.6        	5.55        	                	;
 396             	40.4        	5.55        	                	;
 4               	14.2        	5.55        	                	;
 7               	10          	5.55        	                	;
 228             	49.8        	5.55        	                	;
 229             	49.6        	5.55        	                	;
 256001          	75          	5.55        	                	;
 399             	81.7        	5.55        	                	;
 24              	10          	5.55        	                	;
 24001           	10          	5.55        	                	;
 25              	14.5        	5.55        	                	;
 45001           	32          	5.55        	                	;
 71001           	8.1         	5.55        	                	;
 127001          	56          	5.55        	                	;
 202001          	70          	5.55        	                	;
 301001          	75          	5.55        	                	;
 304             	50.8        	5.55        	                	;
 422             	103         	5.55        	                	;

[RESERVOIRS]
;ID              	Head        	Pattern         
 38              	117         	                	;
 43              	127         	                	;
 44              	122         	                	;
 88              	112         	                	;

[TANKS]
;ID              	Elevation   	InitLevel   	MinLevel    	MaxLevel    	Diameter    	MinVol      	VolCurve        	Overflow

[PIPES]
;ID              	Node1           	Node2           	Length      	Diameter    	Roughness   	MinorLoss   	Status
 1               	126             	125001          	65          	100         	130         	0           	Open  	;
 2               	125001          	125             	260         	100         	130         	0           	Open  	;
 3               	125             	124             	164         	125         	130         	0           	Open  	;