[TITLE]

[JUNCTIONS]
;;ID                             	Elev        	Demand      	Pattern                        
 N0/1                           	0.0000      
 N0/2                           	0.0000      
 N0/3                           	0.0000      
 N1/0                           	0.0000      
 N1/1                           	0.0000      
 N1/2                           	0.0000      
 N1/3                           	0.0000      
 N2/0                           	0.0000      
 N2/1                           	0.0000      
 N2/2                           	0.0000      
 N2/3                           	0.0000      
 N3/0                           	0.0000      
 N3/1                           	0.0000      
 N3/2                           	0.0000      
 N3/3                           	0.0000      

[RESERVOIRS]
;;ID                             	Head        	Pattern                        
 N0/0                           	100.0000    	                               

[TANKS]
;;ID                             	Elevation   	InitLevel   	MinLevel    	MaxLevel    	Diameter    	MinVol      	VolCurve                       	Overflow    

[PIPES]
;;ID                             	Node1                          	Node2                          	Length      	Diameter    	Roughness   	MinorLoss   	Status
 P0                             	N0/0                           	N1/0                           	100.0000    	200.0000    	130.0000    	0.0000      	      
 P1                             	N0/0                           	N0/1                           	100.0000    	200.0000    	130.0000    	0.0000      	      
 P2                             	N0/1                           	N1/1                           	100.0000    	200.0000    	130.0000    	0.0000      	      
 P3                             	N0/1                           	N0/2                           	100.0000    	200.0000    	130.0000    	0.0000      	      
 P4                             	N0/2                           	N1/2                           	100.0000    	200.0000    	130.0000    	0.0000      	      
 P5                             	N0/2                           	N0/3                           	100.0000    	200.0000    	130.0000    	0.0000      	      
 P6                             	N0/3                           	N1/3                           	100.0000    	200.0000    	130.0000    	0.0000      	      
 P7                             	N1/0                           	N2/0                           	100.0000    	200.0000    	130.0000    	0.0000      	      
 P8                             	N1/0                           	N1/1                           	100.0000    	200.0000    	130.0000    	0.0000      	      
 P9                             	N1/1                           	N2/1                           	100.0000    	200.0000    	130.0000    	0.0000      	      
 P10                            	N1/1                           	N1/2                           	100.0000    	200.0000    	130.0000    	0.0000      	      
 P11                            	N1/2                           	N2/2                           	100.0000    	200.0000    	130.0000    	0.0000      	      
 P12                            	N1/2                           	N1/3                           	100.0000    	200.0000    	130.0000    	0.0000      	      
 P13                            	N1/3                           	N2/3                           	100.0000    	200.0000    	130.0000    	0.0000      	      
 P14                            	N2/0                           	N3/0                           	100.0000    	200.0000    	130.0000    	0.0000      	      
 P15                            	N2/0                           	N2/1                           	100.0000    	200.0000    	130.0000    	0.0000      	      
 P16                            	N2/1                           	N3/1                           	100.0000    	200.0000    	130.0000    	0.0000      	      
 P17                            	N2/1                           	N2/2                           	100.0000    	200.0000    	130.0000    	0.0000      	      
 P18                            	N2/2                           	N3/2                           	100.0000    	200.0000    	130.0000    	0.0000      	      
 P19                            	N2/2                           	N2/3                           	100.0000    	200.0000    	130.0000    	0.0000      	      
 P20                            	N2/3                           	N3/3                           	100.0000    	200.0000    	130.0000    	0.0000      	      
 P21                            	N3/0                           	N3/1                           	100.0000    	200.0000    	130.0000    	0.0000      	      
 P22                            	N3/1                           	N3/2                           	100.0000    	200.0000    	130.0000    	0.0000      	      
 P23                            	N3/2                           	N3/3                           	100.0000    	200.0000    	130.0000    	0.0000      	      

[PUMPS]
;;ID                             	Node1                          	Node2                          	Parameters  

[VALVES]
;;ID                             	Node1                          	Node2                          	Diameter    	Type  	Setting     	MinorLoss   

[DEMANDS]
;;Junction                       	Demand        	Pattern                        	Category                       
 N0/1                           	50.000000     	                               
 N0/2                           	50.000000     	                               
 N0/3                           	50.000000     	                               
 N1/0                           	50.000000     	                               
 N1/1                           	50.000000     	                               
 N1/2                           	50.000000     	                               
 N1/3                           	50.000000     	                               
 N2/0                           	50.000000     	                               
 N2/1                           	50.000000     	                               
 N2/2                           	50.000000     	                               
 N2/3                           	50.000000     	                               
 N3/0                           	50.000000     	                               
 N3/1                           	50.000000     	                               
 N3/2                           	50.000000     	                               
 N3/3                           	50.000000     	                               

[EMITTERS]
;;Junction                       	Coefficient   

[LEAKAGE]
;;Pipe                           	Leak Area     	Leak Expansion

[STATUS]
;;ID                             	Status/Setting

[PATTERNS]
;;ID                             	Multipliers 

[CURVES]
;;ID                             	X-Value     	Y-Value     

[CONTROLS]

[RULES]

[QUALITY]
;;ID                             	InitQual      

[SOURCES]
;;ID                             	Type     	Quality       	Pattern                        

[MIXING]
;;ID                             	Model   

[REACTIONS]
 ORDER  BULK            1.00
 ORDER  WALL            1
 ORDER  TANK            1.00
 GLOBAL BULK            0.000000
 GLOBAL WALL            0.000000

[REACTIONS]
;Type     	Pipe/Tank                      	Coefficient 

[ENERGY]
 GLOBAL EFFIC        75.0000
 DEMAND CHARGE       0.0000

[TIMES]
 DURATION            0:00:00
 HYDRAULIC TIMESTEP  1:00:00
 QUALITY TIMESTEP    0:06:00
 REPORT TIMESTEP     1:00:00
 REPORT START        0:00:00
 PATTERN TIMESTEP    1:00:00
 PATTERN START       0:00:00
 RULE TIMESTEP       0:06:00
 START CLOCKTIME     0:00:00
 STATISTIC           NONE

[OPTIONS]
 UNITS               CMH
 PRESSURE            METERS
 HEADLOSS            H-W
 UNBALANCED          STOP
 QUALITY             NONE
 DEMAND MULTIPLIER   1.0000
 EMITTER EXPONENT    0.5000
 BACKFLOW ALLOWED    YES
 VISCOSITY           1.000000
 DIFFUSIVITY         1.000000
 SPECIFIC GRAVITY    1.000000
 TRIALS              200
 ACCURACY            0.00100000
 TOLERANCE           0.01000000
 CHECKFREQ           2
 MAXCHECK            10
 DAMPLIMIT           0.00000000

[REPORT]
 PAGESIZE            0
 STATUS              NO
 SUMMARY             YES
 ENERGY              NO
 MESSAGES            YES
 NODES               NONE
 LINKS               NONE
 Elevation           NO
 Demand              PRECISION 2
 Head                PRECISION 2
 Pressure            PRECISION 2
 Quality             PRECISION 2
 Length              NO
 Diameter            NO
 Flow                PRECISION 2
 Velocity            PRECISION 2
 Headloss            PRECISION 2
 Quality             NO
 State               NO
 Setting             NO
 Reaction            NO

[TAGS]
;;Object  	ID                             	Tag

[COORDINATES]
;;ID                             	X-Coord       	Y-Coord       
 N0/1                           	0.000000      	1.000000      
 N0/2                           	0.000000      	2.000000      
 N0/3                           	0.000000      	3.000000      
 N1/0                           	1.000000      	0.000000      
 N1/1                           	1.000000      	1.000000      
 N1/2                           	1.000000      	2.000000      
 N1/3                           	1.000000      	3.000000      
 N2/0                           	2.000000      	0.000000      
 N2/1                           	2.000000      	1.000000      
 N2/2                           	2.000000      	2.000000      
 N2/3                           	2.000000      	3.000000      
 N3/0                           	3.000000      	0.000000      
 N3/1                           	3.000000      	1.000000      
 N3/2                           	3.000000      	2.000000      
 N3/3                           	3.000000      	3.000000      
 N0/0                           	0.000000      	0.000000      

[VERTICES]
;;ID                             	X-Coord       	Y-Coord       

[END]
