[TITLE]


[JUNCTIONS]
;ID              	Elev        	Demand      	Pattern         
 11              	0           	0           	                	;

[RESERVOIRS]
;ID              	Head        	Pattern         
 5               	0           	                	;
 6               	10          	                	;
 7               	0           	                	;
 8               	0           	                	;
 10              	0           	                	;
 13              	10          	                	;

[TANKS]
;ID              	Elevation   	InitLevel   	MinLevel    	MaxLevel    	Diameter    	MinVol      	VolCurve        	Overflow
 1               	0           	10          	0           	20          	35.68248    	0           	                	;
 2               	0           	0           	0           	20          	35.68248    	0           	                	;
 3               	0           	10          	0           	20          	35.68248    	0           	                	;
 4               	0           	10          	0           	20          	35.68248    	0           	                	;
 9               	0           	10          	0           	20          	35.68248    	0           	                	;
 12              	0           	10          	0           	20          	200         	0           	                	;

[PIPES]
;ID              	Node1           	Node2           	Length      	Diameter    	Roughness   	MinorLoss   	Status
 1               	1               	5               	1000        	5           	100         	0           	Open  	;
 2               	2               	6               	1000        	5           	100         	0           	Open  	;
 3               	3               	7               	1000        	5           	100         	0           	Open  	;
 4               	4               	8               	1000        	5           	100         	0           	Closed	;
 5               	9               	10              	1000        	5           	100         	0           	Open  	;
 6               	9               	11              	100         	12          	100         	0           	Open  	;

[PUMPS]
;ID              	Node1           	Node2           	Parameters
 7               	12              	13              	HEAD 1	;

[VALVES]
;ID              	Node1           	Node2           	Diameter    	Type	Setting     	MinorLoss   

[TAGS]

[DEMANDS]
;Junction        	Demand      	Pattern         	Category

[STATUS]
;ID              	Status/Setting

[PATTERNS]
;ID              	Multipliers

[CURVES]
;ID              	X-Value     	Y-Value
;PUMP: 
 1               	1           	1           

[CONTROLS]
LINK 1 CLOSED IF NODE 1 BELOW 5
LINK 2 CLOSED IF NODE 2 ABOVE 5.5
LINK 3 CLOSED AT TIME 2
LINK 3 OPEN AT TIME 6
LINK 4 OPEN AT CLOCKTIME 6:10 PM
LINK 5 CLOSED IF NODE 11 BELOW 2
LINK 7 1.5 IF NODE 12 BELOW 9

[RULES]


[ENERGY]
 Global Efficiency  	75
 Global Price       	0
 Demand Charge      	0

[EMITTERS]
;Junction        	Coefficient

[QUALITY]
;Node            	InitQual

[SOURCES]
;Node            	Type        	Quality     	Pattern

[REACTIONS]
;Type     	Pipe/Tank       	Coefficient


[REACTIONS]
 Order Bulk            	1
 Order Tank            	1
 Order Wall            	1
 Global Bulk           	0
 Global Wall           	0
 Limiting Potential    	0
 Roughness Correlation 	0

[MIXING]
;Tank            	Model

[TIMES]
 Duration           	12:00 
 Hydraulic Timestep 	1:00 
 Quality Timestep   	0:05 
 Pattern Timestep   	1:00 
 Pattern Start      	0:00 
 Report Timestep    	1:00 
 Report Start       	0:00 
 Start ClockTime    	12 pm
 Statistic          	NONE

[REPORT]
 Status             	No
 Summary            	No
 Page               	0

[OPTIONS]
 Units              	CFS
 Headloss           	H-W
 Specific Gravity   	1
 Viscosity          	1
 Trials             	40
 Accuracy           	0.001
 CHECKFREQ          	2
 MAXCHECK           	10
 DAMPLIMIT          	0
 Unbalanced         	Continue 10
 Pattern            	1
 Demand Multiplier  	1.0
 Emitter Exponent   	0.5
 Quality            	None mg/L
 Diffusivity        	1
 Tolerance          	0.01

[COORDINATES]
;Node            	X-Coord           	Y-Coord
11              	1367.615          	4037.199          
5               	2647.702          	7669.584          
6               	2647.702          	7035.011          
7               	2647.702          	6301.969          
8               	2669.584          	5645.514          
10              	2669.584          	4715.536          
13              	2636.761          	3085.339          
1               	1400.438          	7669.584          
2               	1389.497          	7035.011          
3               	1422.319          	6301.969          
4               	1455.142          	5645.514          
9               	1466.083          	4715.536          
12              	1466.083          	3074.398          

[VERTICES]
;Link            	X-Coord           	Y-Coord

[LABELS]
;X-Coord             Y-Coord             Label & Anchor Node
218.818           	7702.407          	"CLOSE BELOW"	
196.937           	7100.656          	"CLOSE ABOVE"	
98.468            	6411.379          	"CLOSE Time"	
-131.291          	5733.042          	"OPEN CLOCKTIME"	
-568.928          	4792.123          	"CLOSE NODE PRESSURE"	

[BACKDROP]
  DIMENSIONS  	0.000             	0.000             	10000.000         	10000.000         
 UNITS          	None
 FILE           	
 OFFSET         	0.00            	0.00            

[END]
