[TITLE]


[JUNCTIONS]
;ID              	Elev        	Demand      	Pattern         
 1               	0           	1           	                	;
 2               	0           	2           	                	;
 3               	0           	1           	                	;
 4               	0           	2           	                	;
 5               	0           	1           	                	;
 6               	0           	2           	                	;
 7               	0           	1           	                	;

[RESERVOIRS]
;ID              	Head        	Pattern         
 FH              	100         	                	;
 FH2             	85          	                	;

[TANKS]
;ID              	Elevation   	InitLevel   	MinLevel    	MaxLevel    	Diameter    	MinVol      	VolCurve        	Overflow

[PIPES]
;ID              	Node1           	Node2           	Length      	Diameter    	Roughness   	MinorLoss   	Status
 B               	1               	3               	100         	12          	100         	0           	Open  	;
 C               	1               	2               	100         	12          	100         	0           	Open  	;
 D               	2               	4               	100         	12          	100         	0           	Open  	;
 E               	3               	4               	100         	12          	100         	0           	Open  	;
 F               	4               	5               	100         	12          	100         	0           	Open  	;
 G               	4               	6               	100         	12          	100         	0           	Open  	;
 H               	6               	7               	100         	12          	100         	0           	Open  	;
 I               	FH2             	7               	100         	12          	100         	0           	CV    	;

[PUMPS]
;ID              	Node1           	Node2           	Parameters
 1               	FH              	1               	HEAD P1	SPEED 1.5	;

[VALVES]
;ID              	Node1           	Node2           	Diameter    	Type	Setting     	MinorLoss   

[TAGS]

[DEMANDS]
;Junction        	Demand      	Pattern         	Category

[STATUS]
;ID              	Status/Setting
 1               	1.5

[PATTERNS]
;ID              	Multipliers

[CURVES]
;ID              	X-Value     	Y-Value
;PUMP: PUMP: PUMP: 
 P1              	50          	50          

[CONTROLS]




[RULES]




[ENERGY]
 Global Efficiency  	75
 Global Price       	0
 Demand Charge      	0

[EMITTERS]
;Junction        	Coefficient

[QUALITY]
;Node            	InitQual

[SOURCES]
;Node            	Type        	Quality     	Pattern

[REACTIONS]
;Type     	Pipe/Tank       	Coefficient


[REACTIONS]
 Order Bulk            	1
 Order Tank            	1
 Order Wall            	1
 Global Bulk           	0
 Global Wall           	0
 Limiting Potential    	0
 Roughness Correlation 	0

[MIXING]
;Tank            	Model

[TIMES]
 Duration           	0:00 
 Hydraulic Timestep 	1:00 
 Quality Timestep   	0:05 
 Pattern Timestep   	1:00 
 Pattern Start      	0:00 
 Report Timestep    	1:00 
 Report Start       	0:00 
 Start ClockTime    	12 am
 Statistic          	NONE

[REPORT]
 Status             	No
 Summary            	No
 Page               	0

[OPTIONS]
 Units              	CFS
 Headloss           	H-W
 Specific Gravity   	1
 Viscosity          	1
 Trials             	40
 Accuracy           	0.001
 CHECKFREQ          	2
 MAXCHECK           	10
 DAMPLIMIT          	0
 Unbalanced         	Continue 10
 Pattern            	1
 Demand Multiplier  	1.0
 Emitter Exponent   	0.5
 Quality            	None mg/L
 Diffusivity        	1
 Tolerance          	0.01

[COORDINATES]
;Node            	X-Coord           	Y-Coord
1               	180.525           	6466.083          
2               	1821.663          	6422.319          
3               	202.407           	4835.886          
4               	1788.840          	4879.650          
5               	1810.722          	3358.862          
6               	3320.569          	4901.532          
7               	4907.002          	4890.591          
FH              	-1099.562         	6466.083          
FH2             	5333.698          	5448.578          

[VERTICES]
;Link            	X-Coord           	Y-Coord

[LABELS]
;X-Coord             Y-Coord             Label & Anchor Node

[BACKDROP]
  DIMENSIONS  	0.000             	0.000             	10000.000         	10000.000         
 UNITS          	None
 FILE           	
 OFFSET         	0.00            	0.00            

[END]
