[TITLE]


[JUNCTIONS]
 120767297	-0.23	0
 428459655	0.18	0
 333071004	0.12	0.03025114	pattern_003
 333071020	0	0.0109589	pattern_003
 428459649	0.35	0.01609589	pattern_003
 338609165	0.29	0
 428459648	0.41	0
 53437389	-0.12	0
 66040630	-0.3	0
 66040625	-0.02	0
 56492128_1	-0.26	0
 56166320	-0.21	0
 53464022	-0.45	0.01769406	pattern_003
 56075149	0	0.01678082	pattern_003
 53706047	-1.64	0
 56490630_1	-1.77	0
 91566508	0.66	0
 219740358	0.47	0
 53707910	-0.49	0.025	pattern_003
 56491604_1	-0.49	0
 56166046	-0.81	0.01723744	pattern_003
 259208188	-0.87	0.05605023	pattern_003
 66140165	-1.69	0
 53708058	-1.69	0.04874429	pattern_003
 53208120	-0.75	0
 53208136	-0.76	0.00799087	pattern_003
 56364130_1	-0.89	0
 53443582	-0.94	0
 153052681	-0.75	0.0076484	pattern_003
 209633102	-0.99	0.0366895	pattern_003
 209633138	-0.85	0.07237443	pattern_003
 336795056_1	-1.66	0
 336795087	-1.59	0
 53464550	-0.78	0
 53208161	-0.78	0
 53446401	-0.91	0.00582192	pattern_003
 53446451	-0.96	0.04908676	pattern_003
 66043774	-0.92	0.01952055	pattern_003
 66043789	-0.91	0.01552511	pattern_003
 66045340	-1.43	0.08333334	pattern_003
 56068633	-1.36	0.04246575	pattern_003
 53433570	-1.66	0
 53433579	-0.93	0
 56366516_1	-0.97	0
 201408419	-0.96	0.04908676	pattern_003
 259202911	-0.7	0.02762557	pattern_003
 259202861	-0.8	0.02146119	pattern_003
 53208208	-0.8	0
 56005883	-0.73	0
 221753859	0.03	0.03984018	pattern_003
 221753825	-0.08	0.0130137	pattern_003
 259208021	-1.19	0.01255708	pattern_003
 53440919	-1.04	0
 53447899	-0.51	0
 53448570	-0.52	0
 209633132	-0.99	0.07648402	pattern_003
 209633393	-0.89	0.01723744	pattern_003
 53463143	-0.59	0
 66050813	-0.55	0
 193660034	-0.97	0.07077625	pattern_003
 193660012	-0.88	0.1085616	pattern_003
 259198874	-0.07	0.00799087	pattern_003
 259198875	0.27	0.02888128	pattern_003
 53718031	-1.46	0
 56496584_1	-1.52	0
 66140835	-0.91	0.0086758	pattern_003
 56166984	-0.91	0.01815069	pattern_003
 56076003	-0.31	0.09212328	pattern_003
 56375638_1	-0.13	0
 56064531	-0.99	0.8954338	pattern_003
 259209383	-0.85	0.02625571	pattern_003
 53223046	-2.02	0.00924658	pattern_003
 53223047	-2.17	0
 56065555	-1.01	0.00673516	pattern_003
 53443500	-1.01	0.02773973	pattern_003
 53441908	-0.94	0.01792238	pattern_003
 66042013	-1.14	0.02226027	pattern_003
 53254683	-1.44	0.0109589	pattern_003
 53254684	-1.44	0
 56067595	-1.11	0.1111872	pattern_003
 201408396	-0.98	0.04714612	pattern_003
 259202862	-0.59	0.00787671	pattern_003
 66044571	-0.38	0.00833333	pattern_003
 66044577	-0.55	0.02899543	pattern_003
 99256210	-1.62	0
 99256185	-1.62	0
 209284761	-0.95	0.01210046	pattern_003
 209284486	-1.06	0.03082192	pattern_003
 259202570	-0.72	0.0152968	pattern_003
 259202523	-0.81	0.01175799	pattern_003
 66135110	-1.77	0.0173516	pattern_003
 66045056	-0.93	0
 53449259	-0.87	0.02260274	pattern_003
 56375454_1	-1.07	0
 56075913	-0.81	0.1253425	pattern_003
 66051876	-0.95	0.1046804	pattern_003
 56075797	-1.05	0.0359589	pattern_003
 53448124	-0.74	0.01849315	pattern_003
 66044489	-0.74	0.02374429	pattern_003
 53464097	-0.48	0.01586758	pattern_003
 259203316	-0.45	0.02146119	pattern_003
 280572198_1	0.99	0
 327495065	1.23	0
 195082781	-1.44	0
 195082771_1	-0.94	0
 53441608	-0.85	0
 56363320_1	-0.85	0
 53465463	-0.9	0.0303653	pattern_003
 56075891	-0.96	0.0173516	pattern_003
 66044706	-0.41	0.01792238	pattern_003
 66044711	-0.39	0.04657534	pattern_003
 66044596	-0.37	0.00365297	pattern_003
 66044602	-0.37	0.0347032	pattern_003
 209284393	-0.86	0.0303653	pattern_003
 209284411	-0.8	0.07979452	pattern_003
 66044566	-0.63	0.01757991	pattern_003
 56366924_1	-0.43	0
 259202331	-0.5	0
 259202332	-0.45	0.00707763	pattern_003
 259202524	-0.58	0.01974886	pattern_003
 56367316_1	-0.69	0
 66044780	-0.51	0
 53447384	-0.71	0.02899543	pattern_003
 53447359	-0.72	0.03607306	pattern_003
 53462206	-0.67	0.03892694	pattern_003
 221753885	0.13	0.00114155	pattern_003
 56075191	-0.7	0.05285388	pattern_003
 56075203	-0.73	0.2142694	pattern_003
 336446090	-0.78	0
 336446103	-0.78	0
 56367812_1	-1.75	0
 56068671	-1.84	0.02682648	pattern_003
 56370052_1	-0.95	0
 53456233	-0.81	0.03287671	pattern_003
 53456296	-0.43	0.0380137	pattern_003
 53456382	-0.86	0
 259202912	-0.57	0.01518265	pattern_003
 259203002	-0.74	0.01609589	pattern_003
 259202952	-0.75	0.00947489	pattern_003
 53448318	-0.35	0.01073059	pattern_003
 66044615	-0.39	0.00468037	pattern_003
 66044621	-0.6	0.02488584	pattern_003
 237112777	-0.88	0.00833333	pattern_003
 280570562	-0.23	0
 280570677	-0.28	0
 56075169	-0.56	0.04988584	pattern_003
 53464135	-0.39	0.01860731	pattern_003
 53463966	-0.46	0
 53690532	-1.65	0
 53254656	-1.9	0
 56281548_1	-0.76	0
 53278030	-0.82	0.00559361	pattern_003
 53438708	-0.58	0
 66040693	-0.4	0
 56062181	-0.41	0.04760274	pattern_003
 53433503	-0.47	0.00479452	pattern_003
 66051408	-0.8	0.01141553	pattern_003
 259332308	-0.7	0.06175799	pattern_003
 259214530	-1.75	0.02089041	pattern_003
 259214531	-1.46	0.01152968	pattern_003
 56363228_1	-0.44	0
 53441298	-0.44	0.02808219	pattern_003
 66047130	-0.95	0
 339760263	-0.95	0
 53709886	-0.62	0
 56493020_1	-0.62	0
 56064457	-1.3	0
 53440887	-1.21	0.0053653	pattern_003
 53433691	-0.81	0
 235864239	-0.13	0
 235864271	0.02	0.0456621	pattern_003
 53442456	-1.06	0
 53442481	-1.38	0
 194656075	-0.88	0
 66044620	-0.39	0.00787671	pattern_003
 53447763	-0.46	0
 56366776_1	-0.46	0
 66047145	-0.9	0.03184931	pattern_003
 66047141	-0.9	0
 53208207	-0.86	0
 53208190	-0.85	0.00901827	pattern_003
 308589912	-0.76	0.01084475	pattern_003
 308589775	-0.6	0.03436073	pattern_003
 66051816	-1	0.04337899	pattern_003
 53465435	-0.99	0.00993151	pattern_003
 56375412_1	-0.99	0
 53455644	-0.6	0.03858447	pattern_003
 56369934_1	-0.53	0
 206778644	1.04	0
 280571287	1	0
 53312795	0.54	0
 53312796	0.45	0
 339762431	-0.68	0
 209998800	-0.68	0.02968037	pattern_003
 53707260	-0.12	0.02979452	pattern_003
 235864419	-0.02	0.07728311	pattern_003
 235864406	-0.19	0.01780822	pattern_003
 53432971	-1.7	0
 53432989	-1.46	0
 53447975	-0.87	0.03652968	pattern_003
 66044413	-0.84	0
 53455619	-1.63	0.08219178	pattern_003
 66047035	-1.63	0
 176228955	-0.56	0
 53464035	-0.39	0
 53449145	-0.78	0.04954338	pattern_003
 56367492_1	-0.78	0
 259203003	-0.56	0.02089041	pattern_003
 56361530_1	-0.12	0
 203666258	-0.49	0.03812785	pattern_003
 53463395	-0.4	0.0130137	pattern_003
 56374230_1	-0.4	0
 53709902	-1.03	0.01369863	pattern_003
 56492496_1	-1.03	0
 56374948_1	-0.74	0
 53447806	-0.74	0
 53191418	-1.11	0
 56275000_1	-1.11	0
 56165986	-0.9	0.02899543	pattern_003
 53708584	-1.09	0
 65995498	-0.47	0.0033105	pattern_003
 65995504	-0.47	0.00616438	pattern_003
 53449548	-0.96	0
 56367710_1	-0.96	0
 221753815_1	-0.08	0
 53433221	-0.33	0
 56360574_1	-0.32	0
 56067843	-0.75	0.06712329	pattern_003
 56067853	-0.61	0.1013699	pattern_003
 53437740	0.67	0.07636987	pattern_003
 53438649	0.38	0
 53706818	-0.99	0
 336443514	-1.32	0
 53456383	-0.92	0
 66047241	-0.92	0
 53464837	-0.08	0
 53464828	-0.09	0
 66052013	-0.89	0.02009133	pattern_003
 56075901	-0.88	0.1300228	pattern_003
 53207881	-0.96	0.0239726	pattern_003
 56005855	-0.99	0.1010274	pattern_003
 66051342	-0.44	0
 66051387	-0.85	0.02100457	pattern_003
 66051393	-0.85	0.00730594	pattern_003
 339766545	-1.22	0
 259214377	-1.33	0.01369863	pattern_003
 209284618	-0.88	0
 53443219	-0.88	0
 66052049	-0.94	0.03561644	pattern_003
 56493064_1	-0.88	0
 56166964	-0.86	0.00399543	pattern_003
 215991863	0.03	0
 66051853	-1	0.00730594	pattern_003
 66051889	-1.06	0.02785388	pattern_003
 66051895	-1.06	0.01107306	pattern_003
 99257840	-1.64	0.06815068	pattern_003
 99257383	-1.63	0.03401826	pattern_003
 56493112_1	-0.6	0
 53708746	-0.4	0
 53707959	-1.02	0.00353881	pattern_003
 53707687	-1.61	0.0466895	pattern_003
 53207858	-0.54	0.00936073	pattern_003
 56369950_1	-0.54	0
 53706375	-1.69	0.01187215	pattern_003
 53706376	-2.22	0
 53464252	-0.8	0.06518265	pattern_003
 66051918	-1.02	0.018379	pattern_003
 56068321	-0.77	0.08652968	pattern_003
 56068331	-0.82	0.08356164	pattern_003
 53437402	-0.11	0.04315069	pattern_003
 56063171	-0.02	0.03150685	pattern_003
 53455847	-0.58	0
 56070751	-0.52	0.02442922	pattern_003
 90960187	-1.14	0
 194656399	-0.88	0
 194656098	-0.97	0.00045662	pattern_003
 235339011	0.2	0.0033105	pattern_003
 53465338	-1.01	0
 56375354_1	-1.01	0
 66139958	-0.61	0.1644977	pattern_003
 53707312	-1.21	0.00856164	pattern_003
 56363030_1	-0.39	0
 56361550_1	0.26	0
 53437447	0.26	0
 53706409	-1.2	0.07420091	pattern_003
 336795053_1	-1.66	0
 56068287	-0.88	0.1203196	pattern_003
 56068275	-0.74	0.03413242	pattern_003
 302924048	-0.24	0.5239726	pattern_003
 302923880	0.01	0
 167863819	-1.86	0
 167864210_1	-2.01	0
 56165836	-0.46	0.06598174	pattern_003
 53437578	-0.1	0
 53437584	-0.32	0
 65974990	-0.77	0.03995434	pattern_003
 65974986	-1.06	0.01506849	pattern_003
 53446007	-0.5	0
 56068087	-0.48	0
 56165846	-0.74	0.04109589	pattern_003
 56491612_1	-1.2	0
 56367802_1	-1.75	0
 53449723	-1.75	0
 66139837	-1.67	0.2916667	pattern_003
 215991908	-0.07	0.03949772	pattern_003
 215991975	-0.1	0.00878996	pattern_003
 240559440	-0.72	0
 272398102	-0.71	0
 53708647	-0.99	0.04417808	pattern_003
 56166026	-0.9	0
 53449666	-1.66	0.04737443	pattern_003
 66045314	-1.65	0.01518265	pattern_003
 259209998	-0.5	0.0563927	pattern_003
 259209999	-0.78	0.01974886	pattern_003
 56370036_1	-0.74	0
 53456117	-0.65	0.03378996	pattern_003
 53447445	-0.86	0.03219178	pattern_003
 53447455	-0.92	0.02146119	pattern_003
 56065491	-0.93	0.05022831	pattern_003
 53445474	0.05	0.01038813	pattern_003
 56365296_1	0.07	0
 53447143	-0.9	0
 56070981	-0.98	0
 280123416	-0.9	0.02472603	pattern_003
 66045008	-0.78	0.0260274	pattern_003
 336446176	-0.78	0
 66044500	-0.86	0.00662101	pattern_003
 66044506	0.08	0
 66140830	-0.91	0
 53710052	-0.96	0.01940639	pattern_003
 56165918	-1.62	0
 66140160	-1.84	0
 336446208	-0.32	0
 56068029	-0.41	0.07636987	pattern_003
 53447919	-0.5	0
 259203605	-0.56	0
 243471092	-1.56	0
 53465213	-0.74	0.03847032	pattern_003
 66051870	-0.95	0.02511415	pattern_003
 56375268_1	-1.04	0
 53465197	-1.07	0.02260274	pattern_003
 66140841	-0.88	0.03105023	pattern_003
 66140847	-0.88	0.02910959	pattern_003
 53432990	-1.46	0.03869863	pattern_003
 56065647	-0.89	0.08892694	pattern_003
 56364284_1	-0.99	0
 56005843	-0.86	0.01746575	pattern_003
 56283062_1	-1.08	0
 53463434	-0.4	0.08082192	pattern_003
 336446030	-0.93	0
 336445937	-0.93	0
 53207846	-1.06	0.04965753	pattern_003
 53447018	-0.97	0.00924658	pattern_003
 56366322_1	-0.99	0
 53446522	-1.02	0.06563927	pattern_003
 56067365	-0.86	0.00776256	pattern_003
 53445544	0.07	0
 53445513	0.07	0.02853881	pattern_003
 53463862	-0.44	0.00650685	pattern_003
 53463854	-0.41	0.01381279	pattern_003
 56028127	0.28	0
 53302048	0.26	0.01609589	pattern_003
 56483088_1	-1.72	0
 66050951	-0.5	0.09954338	pattern_003
 53465835	-0.44	0
 56365312_1	0.14	0
 205747692	-0.46	0
 99257459	-1.68	0.0836758	pattern_003
 99257437	-1.66	0.04303653	pattern_003
 178414679	-0.5	0.01335616	pattern_003
 259203275	-0.33	0.03390411	pattern_003
 53463863	-0.66	0.0466895	pattern_003
 66050945	-0.5	0.01415525	pattern_003
 53463113	-0.56	0
 99257907	-0.56	0
 66043646	-0.89	0.04041096	pattern_003
 56492491	-0.13	0.07111872	pattern_003
 53709887	-0.18	0
 53446933	-1.13	0.01369863	pattern_003
 56067019	-1.11	0.0607306	pattern_003
 53437568	-0.07	0.00285388	pattern_003
 176227863	0	0.08230594	pattern_003
 336447096	-0.94	0.02659817	pattern_003
 336447086	-0.94	0.00490868	pattern_003
 99257458	-1.69	0.04178082	pattern_003
 244710772_1	-0.98	0
 56365278_1	-0.04	0
 53445526	-0.02	0
 56075763	-0.94	0.018379	pattern_003
 259203206	-0.25	0
 259203207	-0.29	0.0163242	pattern_003
 66050819	-0.55	0
 53463208	-0.58	0
 53449293	-0.92	0.04360731	pattern_003
 53463334	-0.58	0.0293379	pattern_003
 56367702_1	-0.97	0
 53449540	-0.97	0
 53449603	-0.84	0
 53449604	-0.96	0
 259208657	-0.9	0.00913242	pattern_003
 56364186_1	-0.9	0
 259202278	-0.41	0.00605023	pattern_003
 53448561	-0.44	0
 56366526_1	-0.97	0
 56067637	-0.91	0.01700913	pattern_003
 53718016	-1.55	0
 53718017	-1.55	0
 259203690	-0.62	0
 259203691	-0.53	0.0336758	pattern_003
 168842501	-1.04	0.04075342	pattern_003
 219740364	0.36	0
 215992047_1	0.2	0
 215992079	0.2	0
 56062237	-0.42	0.04303653	pattern_003
 53449549	-0.95	0
 53443583	-0.83	0
 56167014	-0.85	0.00913242	pattern_003
 190443319	-0.92	0
 190443285	-0.5	0
 66044786	-0.33	0.00490868	pattern_003
 66044792	-0.33	0
 53465361	-1.01	0
 53445903	-0.32	0.00616438	pattern_003
 336446185_1	-0.32	0
 247997741	0.1	0
 247997646	0.07	0
 66045093	-0.96	0.03447489	pattern_003
 53463340	-0.84	0
 56366804_1	-0.53	0
 53463761	-0.68	0
 56374330_1	-0.55	0
 53463490	-0.37	0
 259200695	-0.53	0.00502283	pattern_003
 56374338_1	-0.43	0
 66045030	-0.76	0.02808219	pattern_003
 66045035	-0.96	0.02180365	pattern_003
 53433536	-1.49	0
 66039281	-1.19	0
 56165940	-1.84	0
 66044805	-0.41	0
 53448552	-0.5	0
 99256415	-1.48	0.01472603	pattern_003
 99256456	-1.55	0.06438356	pattern_003
 66051357	-0.56	0.025	pattern_003
 66051353	-0.56	0.04874429	pattern_003
 259202615	-0.75	0.0303653	pattern_003
 56064835	-1.63	0
 56363472_1	-1.22	0
 53205663	-0.84	0.00662101	pattern_003
 53690790	-2.08	0
 53690778	-1.63	0
 321810404	-1.4	0
 53690759	-1.31	0.8390411	pattern_003
 66044694	-0.37	0.02248858	pattern_003
 53463076	-0.66	0.1114155	pattern_003
 88735596	-0.43	0
 56068433	-0.87	0.03687214	pattern_003
 53208179	-0.76	0.00605023	pattern_003
 53448223	-0.42	0
 56366934_1	-0.42	0
 99256994	-1.38	0.08493151	pattern_003
 99257994	-1.38	0.06118722	pattern_003
 53449007	-0.77	0.01952055	pattern_003
 56068351	-0.85	0.05924657	pattern_003
 66045004	-0.78	0
 65995503	-0.53	0.0706621	pattern_003
 53445586	-0.41	0.01906393	pattern_003
 259203740	-0.66	0
 259203741	-0.6	0.00456621	pattern_003
 53448262	-0.54	0.0263242	pattern_003
 66044636	-0.47	0.00525114	pattern_003
 56062151	-0.4	0.05125571	pattern_003
 53456348	-0.8	0
 53706445	-1.64	0
 66051347	-0.44	0.03481735	pattern_003
 56075139	-0.42	0.0677169	pattern_003
 56482972_1	-1.82	0
 56367684_1	-0.88	0
 56275372_1	-0.55	0
 56000838	-1.16	0
 259208245	-1.05	0
 259208230	-0.98	0.0326484	pattern_003
 53691442	-1.24	0
 53706408	-1.62	0.01118721	pattern_003
 56491574_1	-0.62	0
 56165786	-0.56	0.05171233	pattern_003
 53717668	-1.73	0
 56496314_1	-1.73	0
 53707926	-0.62	0.1287671	pattern_003
 53707703_1	-0.93	0
 56067135	-0.93	0.0533105	pattern_003
 66043662	-0.95	0.03299087	pattern_003
 56067195	-0.9	0
 56063475	0.29	0.202968	pattern_003
 56063485	0.12	0.1335616	pattern_003
 56367190_1	-0.51	0
 53464486	-0.64	0
 56374866_1	-0.64	0
 259202754	-0.93	0
 56365760_1	-0.95	0
 53438264	0.41	0
 56361900_1	0.53	0
 53690803	-2.18	0
 53709981	-0.89	0
 66042530	-1	0.02876712	pattern_003
 53443573	-0.9	0
 66042596	-0.94	0.01792238	pattern_003
 56365304_1	0.11	0
 201408395	-0.62	0.04520548	pattern_003
 53708583	-1.12	0.01015982	pattern_003
 221753690	-0.25	0
 221754228	-0.25	0
 53448740	-0.69	0
 66044140	-1.11	0.01643836	pattern_003
 66044145	-1.11	0
 53462751	-0.14	0
 221754422	-0.11	0
 234522982	-0.07	0
 221754759	-0.03	0.02020548	pattern_003
 66039243	-0.4	0
 339796993	-0.4	0
 53445336	-2.17	0
 53445337	-2.11	0
 66043933	-0.99	0.01860731	pattern_003
 53446771	-0.99	0.03344749	pattern_003
 66140293	-0.99	0.0053653	pattern_003
 53708689	-0.77	0.02636986	pattern_003
 53447103	0.11	0
 53449164	-0.52	0.04189498	pattern_003
 56074701	-0.61	0.0609589	pattern_003
 194615876	-0.9	0.02568493	pattern_003
 53462770	-0.43	0.00605023	pattern_003
 53445370	-1.91	0.01210046	pattern_003
 99256808	-1.51	0.05262557	pattern_003
 99256790	-1.66	0.01518265	pattern_003
 66051190	-0.68	0.01175799	pattern_003
 236542714	-2.09	0
 56492214_1	-0.21	0
 66140202	-1.27	0
 53708712	-1.48	0.02146119	pattern_003
 56491878_1	-0.41	0
 53708634	-0.58	0.0260274	pattern_003
 56067297	-0.99	0.02054795	pattern_003
 56366154_1	-1.03	0
 66043718	-0.89	0
 66043713	-0.66	0.01426941	pattern_003
 53455654	-0.6	0
 53438736	-0.58	0.02043379	pattern_003
 53438748	-0.32	0.02123288	pattern_003
 99256261	-1.67	0.02408676	pattern_003
 56365920_1	-0.91	0
 66051544	-0.73	0.00422374	pattern_003
 66051550	-0.73	0
 66139975	-0.95	0
 66139971	-0.99	0.06986301	pattern_003
 53445855	-0.35	0
 56365544_1	-0.35	0
 53437754	0.55	0
 53437755	0.55	0
 56074597	-0.49	0.1341324	pattern_003
 56374100_1	-0.51	0
 55529240_1	-1.29	0
 259249751	-1.28	0.8430365	pattern_003
 174080423	-0.64	0.01187215	pattern_003
 174080424	-0.39	0.01050228	pattern_003
 66140278	-1.05	0.03287671	pattern_003
 201102144	-0.28	0
 56068075	-0.29	0.04805936	pattern_003
 259202388	-0.49	0.02936073	pattern_003
 53463135	-0.42	0
 53447894	-0.28	0.05171233	pattern_003
 53447876	-0.49	0.00627854	pattern_003
 56063191	0.35	0.01278539	pattern_003
 53711228	-0.57	0
 53707745	-1.54	0
 56496550_1	-0.94	0
 53717149	-1.04	0
 53464184	-0.46	0.0446347	pattern_003
 53464193	-0.48	0.0380137	pattern_003
 56070761	-0.67	0.01426941	pattern_003
 245179333	-0.65	0.06700914	pattern_003
 53455588	-0.82	0
 56370182_1	-0.82	0
 53447885	-0.43	0.01426941	pattern_003
 56067983	-0.45	0.01700913	pattern_003
 66051935	-0.99	0
 259203423	-1.05	0.01175799	pattern_003
 53433206	-0.43	0
 56070703	-0.61	0.04600457	pattern_003
 56070693	-0.64	0.07785388	pattern_003
 56490672_1	-1.83	0
 56367072_1	-0.5	0
 66044655	-0.52	0.01324201	pattern_003
 66044660	-0.12	0.03242009	pattern_003
 53443046	-0.88	0
 221753869_1	-0.27	0
 221754375	-0.1	0.02214612	pattern_003
 66045072	-0.71	0.02340183	pattern_003
 66044821	-0.56	0
 56068613	-1.58	0.1047945	pattern_003
 66045320	-1.65	0.0119863	pattern_003
 56375364_1	-1.05	0
 53446332	-0.89	0.0272831	pattern_003
 259202485	-0.81	0.03926941	pattern_003
 259202438	-0.82	0.01175799	pattern_003
 66044382	-0.66	0
 56066785	-0.86	0.01255708	pattern_003
 53445793	-0.88	0.02043379	pattern_003
 221754772	0	0
 66041652	-0.75	0
 53441285	-0.75	0.01369863	pattern_003
 56074609	-0.55	0.1297945	pattern_003
 66051211	-0.77	0.0283105	pattern_003
 53463733	-0.65	0.01986301	pattern_003
 53465884	-0.67	0.01655251	pattern_003
 53441143	-1.03	0.00742009	pattern_003
 189744721	-0.49	0
 281396082	-0.28	0
 99256565	-1.52	0
 99256729_1	-1.55	0
 218319947	-0.29	0.03242009	pattern_003
 235864178	0	0.03573059	pattern_003
 53718032	-1.78	0
 53192094	-0.94	0
 66042563	-0.88	0.01803653	pattern_003
 66042553	-0.99	0
 53443523	-0.86	0.0206621	pattern_003
 259212868	-0.83	0.0043379	pattern_003
 259212869	-0.89	0.01769406	pattern_003
 259203351	-0.47	0.00410959	pattern_003
 56374922_1	-0.78	0
 259203424	-1.05	0.00981735	pattern_003
 187454710	-0.63	0
 187454691_1	-0.57	0
 339807352	-1.47	0.00799087	pattern_003
 56367410_1	-0.82	0
 53448741	-0.82	0
 53207896	-1.08	0.06689498	pattern_003
 56075227	-0.68	0.04988584	pattern_003
 56068701	-1.5	0.06563927	pattern_003
 99256781	-1.6	0.04383562	pattern_003
 66044192	-0.81	0.04383562	pattern_003
 66044187	-0.81	0
 56066931	-0.51	0
 53438350	-0.56	0.1058219	pattern_003
 56361700_1	0.51	0.00684932	pattern_003
 53440886	-0.67	0
 56363068_1	-1.5	0
 56157775	-1.8	0
 53449250	-0.9	0.02351598	pattern_003
 53449539	-0.96	0
 99257129	-1.42	0.09212328	pattern_003
 99257278	-1.34	0.03515982	pattern_003
 259203380	-0.45	0.01712329	pattern_003
 53208217	-0.55	0
 53208242	-0.57	0
 56167070	-0.36	0
 215991959	0.21	0.01073059	pattern_003
 215991928	0.2	0.0283105	pattern_003
 53433451	-0.23	0
 53433452	0.13	0
 56490914_1	-1.2	0
 56075775	-0.92	0.03447489	pattern_003
 53709926	-0.36	0.01289954	pattern_003
 56492470_1	-0.4	0
 66044484	-0.82	0.03287671	pattern_003
 56067935	-0.71	0.01974886	pattern_003
 66047165	-0.88	0.03173516	pattern_003
 66047161	-0.82	0.02006849	pattern_003
 53449396	-0.96	0.03253425	pattern_003
 280570656	0.99	0
 56065503	-0.9	0.05707762	pattern_003
 53443220	-0.72	0.02351598	pattern_003
 53708478	-0.51	0
 53708455	-0.51	0.08436073	pattern_003
 240419520	-0.46	0.02043379	pattern_003
 53690108	-1.9	0.1173516	pattern_003
 56482964_1	-1.9	0
 53433588	-0.58	0
 53433589	-0.58	0
 56374874_1	-0.74	0
 66045060	-0.79	0.04589041	pattern_003
 56068475	-0.79	0.02648402	pattern_003
 180253557	-0.29	0
 56360566_1	-0.57	0
 53432954	-0.57	0.01643836	pattern_003
 56075337	-0.72	0.08550228	pattern_003
 66051990	-0.62	0.06609589	pattern_003
 66051967	-0.78	0.0446347	pattern_003
 66045204	-0.96	0.00239726	pattern_003
 193659980	-0.68	0.05091324	pattern_003
 193660359	-0.66	0
 56363114_1	-1.03	0
 56075085	-0.71	0.01563927	pattern_003
 66140198	-1.27	0
 53433598	-0.64	0
 53446331	-0.99	0
 53710042	-0.98	0.01780822	pattern_003
 66044266	-0.81	0.08413242	pattern_003
 66051459	-0.7	0.04063927	pattern_003
 308589788	-0.46	0
 53433270	-0.5	0
 53455645	-0.48	0.02009133	pattern_003
 56070673	-0.55	0.08242009	pattern_003
 53691327	-1.3	0.1748858	pattern_003
 53706423	-1.64	0.0380137	pattern_003
 53433165	-1.23	0
 53235675	-0.9	0.02534247	pattern_003
 53450460	-0.58	0.0326484	pattern_003
 56367432	-0.77	0.01358448	pattern_003
 56068361	-0.87	0.05570776	pattern_003
 66044816	-0.56	0.01575342	pattern_003
 56375474_1	-1.07	0
 66052008	-0.89	0.0119863	pattern_003
 56375492_1	-0.87	0
 53446436	-0.87	0
 56490986_1	-0.97	0.00605023	pattern_003
 56491004_1	-0.66	0
 53465773	-0.13	0
 53208160	-0.63	0
 56076015	-0.76	0
 259202212	-0.44	0.01826484	pattern_003
 259202213	-0.43	0.01027397	pattern_003
 53446008	-0.32	0.02431507	pattern_003
 243471038	-1.56	0.0140411	pattern_003
 243470992	-1.56	0
 53463996	-0.64	0.02043379	pattern_003
 56374598_1	-0.64	0
 53445581	-0.41	0
 66140503	-1.23	0
 53709035	-1.99	0
 259201205	-0.61	0.01381279	pattern_003
 53302071	-0.66	0
 66043769	-0.92	0.00570776	pattern_003
 66043775	-1.01	0.00799087	pattern_003
 53448543	-0.41	0.01746575	pattern_003
 180253556	-0.32	0
 53204739	-0.76	0
 53447764	-0.76	0
 53448115	-0.86	0.01575342	pattern_003
 53456217	-0.54	0.0097032	pattern_003
 53709455	-0.09	0
 53709386	-0.31	0
 56366266_1	-0.99	0
 56067401	-1.16	0.02819635	pattern_003
 66140298	-0.99	0.03436073	pattern_003
 53447430	-0.82	0
 56067959	-0.79	0.02614155	pattern_003
 90960167	-1.2	0
 56028137	-0.58	0
 53446556	-1.07	0.05159817	pattern_003
 66043784	-0.91	0.00730594	pattern_003
 56165996	-1.08	0.05547945	pattern_003
 56491886_1	-0.51	0
 53446521	-0.92	0.00913242	pattern_003
 56365954_1	-0.92	0
 99256484	-1.43	0.00388128	pattern_003
 99256499	-1.55	0
 56065229	0.03	0.09292237	pattern_003
 56363830_1	0.12	0
 215991897	0.02	0
 234522936	0.04	0
 53446400	-0.61	0.03378996	pattern_003
 56062091	-0.72	0.1436073	pattern_003
 66044219	-0.97	0.02031964	pattern_003
 56067887	-0.87	0.02648402	pattern_003
 215991913	0.11	0.05136986	pattern_003
 219740298	0.02	0.06107306	pattern_003
 215991842	0.24	0.06324201	pattern_003
 235624462	0.42	0.03447489	pattern_003
 234523089	-0.08	0
 234523149	0.06	0
 259200648	-0.11	0.0086758	pattern_003
 53462752	-0.12	0.02002283	pattern_003
 259208022	-0.65	0.0229452	pattern_003
 99257349	-1.68	0
 99257086	-1.68	0.07785388	pattern_003
 215991852	0.22	0
 215991960	0.14	0.03059361	pattern_003
 215991923	0.12	0.02956621	pattern_003
 66142996	-1.35	0
 56074667	-0.49	0.00296804	pattern_003
 53302047	0.28	0.01598174	pattern_003
 240559375	-0.82	0.02876712	pattern_003
 240559376	-0.82	0
 53207897	-1.06	0
 53208189	-0.86	0.0119863	pattern_003
 53464444	-0.84	0
 53456166	-0.93	0.00308219	pattern_003
 56068445	-0.98	0.07089041	pattern_003
 336445957	-0.89	0.02796804	pattern_003
 56068063	-0.51	0.1521461	pattern_003
 56367046_1	-0.47	0
 56076125	-0.5	0.00650685	pattern_003
 53463910	-0.55	0.01986301	pattern_003
 66045240	-0.85	0.00251142	pattern_003
 66045245	-0.85	0.02328767	pattern_003
 259200696	-0.05	0.0140411	pattern_003
 66051453	-0.7	0.00936073	pattern_003
 56068139	-0.54	0.00993151	pattern_003
 56366208_1	-1.13	0
 53441247	-1.04	0.01917808	pattern_003
 56366198_1	-1.08	0
 53463853	-0.43	0.01541096	pattern_003
 53448116	-0.85	0.00883562	pattern_003
 56067605	-1.09	0.04942922	pattern_003
 221754062_1	-0.06	0
 232798055	-0.1	0
 99257445	-1.67	0.01358448	pattern_003
 66044659	-0.52	0
 221753629	-0.09	0
 259202279	-0.44	0.00068493	pattern_003
 99257160_1	-1.67	0
 99257003	-1.67	0
 259201742	-0.59	0
 53441223	-0.8	0
 53441224	-0.68	0
 53447134	-0.96	0.00399543	pattern_003
 56374078_1	-0.51	0
 66051044	-0.56	0.03219178	pattern_003
 53463512	-0.56	0
 259202814	-0.78	0.01757991	pattern_003
 259202815	-0.55	0.03150685	pattern_003
 53710043	-0.93	0.0140411	pattern_003
 56065657	-0.96	0.09497717	pattern_003
 53443574	-0.99	0.01506849	pattern_003
 162053376	-1.5	0
 56491972_1	-1.5	0
 99257075	-1.67	0
 56374580_1	-0.54	0
 56370252_1	-0.65	0
 53433222	-0.32	0
 53690727	-1.43	0
 53690728	-1.75	0
 56366492_1	-0.99	0
 99257582	-1.67	0.09828767	pattern_003
 53208230	-0.57	0
 53268218	-0.48	0.01974886	pattern_003
 56375258_1	-0.94	0
 56165816	-0.4	0.1840183	pattern_003
 66044959	-0.84	0.05570776	pattern_003
 56370084_1	-0.9	0
 235864016	-0.44	0
 56364064_1	-0.91	0
 53447805	-0.47	0.0272831	pattern_003
 56366672_1	-0.64	0
 56067649	-0.61	0.05936073	pattern_003
 53446410	-1.04	0.03778539	pattern_003
 53446886	-0.9	0
 56366594_1	-0.76	0
 56075181	-0.42	0.05308219	pattern_003
 56492234_1	-0.09	0
 336795132	-1.66	0
 53463956	-0.25	0
 56062219	-0.7	0.09406393	pattern_003
 99257551	-1.58	0.07659817	pattern_003
 56363104_1	-1.03	0
 56365374_1	-0.75	0
 66041656	-0.46	0
 66045277	-0.96	0
 195082725	-0.84	0.03584475	pattern_003
 195082834	-0.85	0.01575342	pattern_003
 66045071	-0.8	0
 259374536	-0.8	0.02888128	pattern_003
 56076045	-1.2	0.02819635	pattern_003
 53433710	-1.07	0.1116438	pattern_003
 280572186_1	0.99	0
 327495042	1.04	0
 66045182	-0.76	0.1027397	pattern_003
 66045177	-0.89	0.03561644	pattern_003
 53465316	-1.03	0.00251142	pattern_003
 56364276_1	-0.97	0
 56170218	-0.48	0
 56496724_1	-0.48	0
 66045258	-0.91	0
 56075871	-1.09	0.05251142	pattern_003
 56375338_1	-1	0
 66044387	-0.66	0
 195082772	-0.95	0
 195082735	-0.95	0.03561644	pattern_003
 65974457	-0.82	0
 53205649	-0.82	0
 339834485	-1.61	0.05148402	pattern_003
 66043527	-0.85	0
 205747558	-1.32	0
 205747857	-1.03	0
 53208216	-0.43	0.03732877	pattern_003
 56074655	-0.53	0.03942922	pattern_003
 56496636_1	-1.55	0
 53709454	-0.01	0
 56492180_1	-0.05	0
 167864192	-1.95	0
 66142927	-1.52	0
 53717610	-1.52	0
 53446183	-0.59	0.01678082	pattern_003
 56064781	-0.96	0.07614155	pattern_003
 195082762	-0.95	0
 53707735	-1.66	0
 53445771	-0.44	0
 53445784	-0.96	0
 53268219	-0.43	0
 53443532	-1.05	0.0097032	pattern_003
 53443554	-1.03	0.01826484	pattern_003
 53463077	-0.52	0.09063927	pattern_003
 221754669	-0.12	0
 56490848_1	-1.64	0
 53708558	-0.82	0.00011416	pattern_003
 56074499	-0.67	0.03047945	pattern_003
 53463086	-0.66	0
 56165806	-0.37	0.0196347	pattern_003
 201102188	0.66	0
 201100971	0.02	0
 53705761	-1.76	0
 56490240_1	-1.65	0
 53438349	-0.56	0
 56369960_1	-0.58	0
 53447755	-0.55	0.00194064	pattern_003
 56068041	-0.45	0.06289954	pattern_003
 56067971	-0.44	0.02123288	pattern_003
 66044576	-0.38	0.02659817	pattern_003
 56068623	-1.42	0.09063927	pattern_003
 56166952	-1.01	0.02762557	pattern_003
 56065479	-1	0.06837899	pattern_003
 247997718	-0.13	0
 173804737	-0.46	0.00479452	pattern_003
 173804694	-0.62	0.1147546	pattern_003
 53456330	-0.84	0
 53456331	-0.66	0
 56369942_1	-0.66	0
 66043990	-0.9	0.02203196	pattern_003
 56066591	-1.51	0
 53455865	-0.61	0.03070776	pattern_003
 53455856	-0.82	0.00981735	pattern_003
 259202439	-0.59	0.02408676	pattern_003
 56075117	-0.62	0.1019406	pattern_003
 53463085	-0.09	0.00273973	pattern_003
 66050831	-0.2	0.03744292	pattern_003
 66050826	-0.58	0
 53465772	-0.03	0.02465753	pattern_003
 53465757	-0.13	0
 53717667	-0.76	0
 55549706_1	-1.73	0.1563927	pattern_003
 280570540	0.99	0
 53445269	-2.51	0
 251120705	-1.88	0
 56283150_1	-0.86	0
 66042592	-0.94	0
 55271754	-0.92	0.01780822	pattern_003
 56074679	-0.49	0.02671233	pattern_003
 339845028	-0.62	0.02910959	pattern_003
 259214251	-0.89	0.03561644	pattern_003
 209284429	-0.74	0.03242009	pattern_003
 56068097	-0.47	0
 56068653	-1.64	0.02009133	pattern_003
 66045379	-1.63	0.01449772	pattern_003
 56068549	-0.95	0
 66043647	-0.87	0.02579909	pattern_003
 53463114	-0.51	0
 339845742	-0.39	0
 53443247	-0.89	0
 56283158_1	-0.57	0
 336446249_1	-0.48	0
 336446272	-0.48	0
 56374938_1	-0.76	0
 53705694	-1.59	0
 236542718	-2.02	0
 53440918	-0.95	0
 56496602_1	-1.55	0
 53463533	-0.55	0
 56070863	-0.95	0.2641552	pattern_003
 66050859	-0.84	0.03447489	pattern_003
 56074999	-0.8	0.02089041	pattern_003
 56067331	-1.03	0
 339848441	-0.64	0.01883562	pattern_003
 99257208_1	-1.67	0
 66041630	-0.78	0
 66041636	-1.23	0
 53703905	-2.04	0
 66051940	-0.99	0.01369863	pattern_003
 66041596	-0.8	0.00319635	pattern_003
 53254635	-0.55	0.0456621	pattern_003
 65967958	-0.57	0.04965753	pattern_003
 209284428	-1	0.03550228	pattern_003
 56068499	-0.94	0.02031964	pattern_003
 66045132	-0.84	0
 53441569	-0.54	0.00559361	pattern_003
 56063513	-0.55	0
 189886458	-0.33	0
 66050854	-0.55	0.07636987	pattern_003
 53441568	-0.52	0
 56363276_1	-0.46	0.02317352	pattern_003
 53456232	-0.89	0
 56070873	-0.79	0.03778539	pattern_003
 66045115	-0.87	0
 53449324	-0.84	0.00684932	pattern_003
 56363838_1	-0.04	0
 53708633	-0.5	0.1125571	pattern_003
 193660100	-0.99	0.03835616	pattern_003
 66043719	-0.66	0
 66047236	-0.92	0.01700913	pattern_003
 66041880	-0.84	0.0163242	pattern_003
 56065117	-0.94	0.0303653	pattern_003
 66051991	-0.86	0.02659817	pattern_003
 53446932	-0.97	0.00981735	pattern_003
 99257150_1	-1.67	0
 53441695	-0.86	0.02636986	pattern_003
 56363010_1	-1.18	0
 66045066	-0.71	0.01472603	pattern_003
 259211299	-0.86	0.01015982	pattern_003
 56366944_1	-0.42	0
 53705687	-1.77	0
 66041635	-0.78	0.05468037	pattern_003
 56363124_1	-0.85	0
 66045089	-0.96	0.02157534	pattern_003
 66045094	-0.54	0.01164384	pattern_003
 53448029	-0.55	0.04280822	pattern_003
 66044560	-0.63	0
 56075239	-0.74	0.00878996	pattern_003
 99256149	-1.47	0.02579909	pattern_003
 99259781_1	-1.62	0
 53447827	-0.57	0.02271689	pattern_003
 221754003	-0.13	0
 221753507	-0.25	0
 53465436	-0.92	0.01267123	pattern_003
 99257961_1	-0.56	0
 99257859	-0.59	0
 99257785	-0.62	0
 99257769	-0.56	0
 247997742_1	0.1	0
 53465256	-1.05	0.03333334	pattern_003